8
	Energy:       3.1072995
C         -7.55840        1.13172        0.78912
C         -6.86644        0.72835        2.05371
O         -6.06717        1.49863        2.55865
O         -7.10291       -0.46642        2.65187
C         -7.98257       -1.41399        2.17330
H         -7.97963       -2.28963        2.85435
H         -7.67202       -1.74889        1.16046
H         -9.01152       -0.99672        2.13334
