14
	Energy: -169651.8133994
C          1.21382       -0.58829        0.24960
C          1.47233        0.65528       -0.29077
H          1.26444        0.83175       -1.34068
O          0.34208       -1.38576       -0.25854
C         -1.32450       -0.77675        0.18528
H         -1.90599       -1.52984       -0.33753
H         -1.23833       -0.94998        1.25556
C         -1.30842        0.54273       -0.28865
H         -1.61731        0.72416       -1.31602
C         -0.46238        1.45046        0.32305
H         -0.32984        2.44922       -0.08691
H         -0.26586        1.37328        1.38949
H          2.22616        1.29219        0.16860
H          1.58495       -0.80536        1.26479
