16
	Energy: -147136.7915307
C          0.00006        1.40879        0.25203
C         -1.21243        0.90789       -0.25651
H         -1.29069        0.78243       -1.33621
C          1.21243       -0.90789        0.25651
H          2.13866       -1.28500       -0.17920
H          1.29069       -0.78243        1.33621
C         -0.00006       -1.40879       -0.25203
H         -0.00007       -1.81655       -1.26308
C         -1.21250       -0.90779        0.25651
H         -2.13877       -1.28483       -0.17920
H         -1.29075       -0.78233        1.33621
H         -2.13866        1.28500        0.17920
H          0.00007        1.81655        1.26308
C          1.21250        0.90779       -0.25651
H          1.29075        0.78233       -1.33621
H          2.13877        1.28483        0.17920
