9
	Energy:       3.4565273
C         -7.03997        0.06195       -0.56280
N         -6.96743        0.59156        0.77568
C         -5.79049        0.71577        1.44294
C         -4.48325        0.30552        0.82146
H         -7.84564        0.88226        1.23072
H         -4.50967       -0.77539        0.56954
H         -3.64096        0.48478        1.52361
H         -4.30497        0.89477       -0.10240
O         -5.78955        1.17176        2.57665
