8
	Energy:       4.1474535
C         -7.04991       -0.62544        0.08637
O         -6.71652        0.54604        0.72420
C         -5.71018        1.37129        0.33852
O         -5.50794        2.38646        0.98502
C         -4.82929        1.09332       -0.85186
H         -5.09577        0.14944       -1.36807
H         -3.77255        1.02083       -0.51933
H         -4.92134        1.92566       -1.58074
