12
	Energy:      11.0197986
C         -7.69482        0.71828        0.75269
C         -6.96462        0.78518        2.04973
C         -7.62303        1.22949        3.20403
C         -5.61803        0.40391        2.11785
C         -6.93629        1.29184        4.42127
C         -5.59226        0.91090        4.48743
C         -4.93353        0.46718        3.33631
H         -8.66381        1.52643        3.16177
H         -7.44544        1.63514        5.31256
H         -5.06183        0.95950        5.42963
H         -3.89336        0.17253        3.38827
H         -5.10018        0.05906        1.23122
