6
	Energy:       0.5319821
C         -6.06988        1.15729       -0.48788
C         -4.80115        1.39549        0.26041
C         -3.83851        2.16421       -0.24675
H         -4.66436        0.93351        1.23260
H         -3.94654        2.64022       -1.21776
H         -2.92479        2.32223        0.31687
