7
	Energy:       0.5947004
C         -6.00250        1.46356       -0.18368
C         -4.56183        1.07695       -0.16803
O         -4.13544        0.31212       -1.01791
C         -3.63941        1.61824        0.87836
H         -4.18261        2.29569        1.57099
H         -2.81806        2.18647        0.39355
H         -3.20712        0.78001        1.46406
