6
	Energy:       0.9545807
C         -5.97231        1.41149       -0.24112
C         -4.53083        1.02775       -0.22140
O         -4.10036        0.26289       -1.06984
N         -3.70610        1.52228        0.72805
H         -4.06327        2.16844        1.44717
H         -2.70942        1.25961        0.74518
